Version 4
SHEET 1 880 680
WIRE 32 96 32 80
WIRE 32 112 32 96
WIRE 272 192 272 176
WIRE 32 224 32 192
WIRE 272 224 272 192
WIRE -480 256 -480 240
WIRE -256 256 -256 240
WIRE -128 256 -128 240
WIRE -368 272 -368 240
WIRE -48 272 -64 272
WIRE -16 272 -48 272
WIRE 48 272 32 272
WIRE 192 272 176 272
WIRE 224 272 192 272
WIRE 288 272 272 272
WIRE -480 304 -480 256
WIRE -368 304 -368 272
WIRE -256 304 -256 256
WIRE -128 304 -128 256
WIRE 48 320 48 272
WIRE 48 320 32 320
WIRE 288 320 288 272
WIRE 288 320 272 320
WIRE 32 368 32 320
WIRE 272 368 272 320
WIRE -480 416 -480 384
WIRE -368 416 -368 384
WIRE -256 416 -256 384
WIRE -128 416 -128 384
FLAG -480 416 0
FLAG -368 416 0
FLAG -256 416 0
FLAG -128 416 0
FLAG 32 368 0
FLAG 272 368 0
FLAG -480 256 VG1
FLAG -48 272 VG1
FLAG -368 272 VG2
FLAG 192 272 VG2
FLAG -256 256 VDD1
FLAG 32 96 VDD1
FLAG -128 256 VDD2
FLAG 272 192 VDD2
SYMBOL 035_ltspice_lib\\nmos_035 -16 224 R0
SYMATTR InstName M1
SYMATTR Value2 l=10u w=30u
SYMATTR SpiceLine ""
SYMBOL voltage -256 288 R0
SYMATTR InstName VDD1
SYMATTR Value 3.3V
SYMBOL voltage -368 288 R0
WINDOW 123 0 0 Left 0
WINDOW 39 0 0 Left 0
SYMATTR InstName VG2
SYMATTR Value 3.3
SYMBOL voltage -128 288 R0
WINDOW 123 0 0 Left 0
WINDOW 39 0 0 Left 0
SYMATTR InstName VDD2
SYMATTR Value 0.5V
SYMBOL res 16 96 R0
SYMATTR InstName R1
SYMATTR Value 1k
SYMBOL voltage -480 288 R0
SYMATTR InstName VG1
SYMATTR Value 1.5V
SYMBOL 035_ltspice_lib\\nmos_035 224 224 R0
SYMATTR InstName M2
SYMATTR Value2 l=10u w=30u
SYMATTR SpiceLine ""
TEXT -400 40 Left 2 !.include C:\\Users\\Admin PC\\Documents\\LTspiceXVII\\lib\\sym\\035_ltspice_lib/5827_035.lib
TEXT -232 184 Left 2 !.dc VG2 0 3.3 0.1
