Version 4
SHEET 1 996 680
WIRE 256 96 256 48
WIRE 432 96 432 48
WIRE 624 96 624 48
WIRE -96 144 -96 128
WIRE 48 144 48 128
WIRE 176 144 160 144
WIRE 208 144 176 144
WIRE 272 144 256 144
WIRE 352 144 336 144
WIRE 384 144 352 144
WIRE 448 144 432 144
WIRE 544 144 528 144
WIRE 576 144 544 144
WIRE 640 144 624 144
WIRE -96 160 -96 144
WIRE 48 160 48 144
WIRE 272 192 272 144
WIRE 272 192 256 192
WIRE 448 192 448 144
WIRE 448 192 432 192
WIRE 640 192 640 144
WIRE 640 192 624 192
WIRE 256 240 256 192
WIRE 432 240 432 192
WIRE 624 240 624 192
WIRE -96 272 -96 240
WIRE 48 272 48 240
FLAG 256 240 0
FLAG 48 272 0
FLAG -96 272 0
FLAG 432 240 0
FLAG 624 240 0
FLAG -96 144 VG
FLAG 176 144 VG
FLAG 352 144 VG
FLAG 544 144 VG
FLAG 48 144 VDD
FLAG 256 48 VDD
FLAG 432 48 VDD
FLAG 624 48 VDD
SYMBOL 035_ltspice_lib\\nmos_035 208 96 R0
SYMATTR InstName M1
SYMATTR Value2 l=0.5u w=3u
SYMATTR SpiceLine ""
SYMBOL voltage 48 144 R0
SYMATTR InstName VDD
SYMATTR Value 2V
SYMBOL voltage -96 144 R0
WINDOW 123 0 0 Left 0
WINDOW 39 0 0 Left 0
SYMATTR InstName VG
SYMATTR Value 2V
SYMBOL 035_ltspice_lib\\nmos_035 384 96 R0
SYMATTR InstName M2
SYMATTR Value2 l=1u w=6u
SYMATTR SpiceLine ""
SYMBOL 035_ltspice_lib\\nmos_035 576 96 R0
SYMATTR InstName M3
SYMATTR Value2 l=5u w=30u
SYMATTR SpiceLine ""
TEXT -88 -88 Left 2 !.include C:\\Users\\Admin PC\\Documents\\LTspiceXVII\\lib\\sym\\035_ltspice_lib/5827_035.lib
TEXT -32 -48 Left 2 !.dc VDD 0 3.3 0.1
